9
 energy: -16.697646641606 gnorm: 0.000570343073 xtb: 6.3.3 (8d1dad5d26fa70d8c78cc3f4c837a3e1093e11cf)
C        -0.00003263734253   -1.14678869828885   -0.58285519520406
N        -0.00003091729056   -1.13621953650407    0.73957205100575
H        -0.00002561908273    1.98566748010393   -1.29237060868803
N        -0.00000780762357   -0.07240062603057   -1.35388307524816
N         0.00001542464491    1.20866525430401    0.61425675998242
C         0.00003528404371    1.07807342178823   -0.70166713379140
H         0.00003510509176    0.12645159297594    2.36585688582895
H        -0.00004797297897   -2.11218656979199   -1.07341009844503
C        -0.00002336954601    0.06861943650137    1.28447608660656
