130
 energy: -187.406924924992 gnorm: 0.000146575441 xtb: 6.3.3 (8d1dad5d26fa70d8c78cc3f4c837a3e1093e11cf)
         N            0.380818686852    -2.381822118475    -0.140987125542
         C            0.380818686852    -2.381822118475     1.161182874458
         C            0.380818686852    -1.165778522281    -0.764004215722
         C            0.358923167879     0.102018085948    -2.654004566536
         C            0.382236099359     2.164009363919     1.405081914062
         N            0.381271213585    -0.038277217440    -0.029579295938
         N            0.373782865466    -1.147528336492    -2.059368427747
         N            0.365030907501     2.274214951749     0.025523726313
         N            0.397583842397    -1.242012794196     1.945855537685
         C            0.351606205395    -3.682387417794     1.902267370278
         N            0.400954092477     1.035981816188     2.055522593032
         C            0.393681154870    -0.111195689625     1.313852256413
         C            0.379996784070     3.454912724436     2.163345120525
         C            0.366703480220     1.161536916636    -0.638265490172
         N            0.351595327420     1.229797927404    -2.002919596566
         C            0.341340251372     0.110279704664    -4.150842286571
         H            0.298929432138    -4.886603888822     0.100583605493
         C            0.340269474150    -3.712856615602     3.303046370009
         C            0.256037788097    -6.139153921888     3.266346753731
         C            0.309308771765    -4.889602917203     1.189109990813
         C            0.176126581173    -7.414173968947     4.029844681382
         H            0.183961766298    -7.029355046517     1.287266053585
         C            0.258271098848    -6.113267890172     1.866566514858
         C            0.286682023090    -4.935363113120     3.980784178950
         H            0.362356593816    -2.791557316919     3.881476964175
         H            0.265399451800    -4.946950834340     5.069356987923
         C            0.456134940713    -1.082095277151    -4.878370420417
         C            0.440232513064    -1.058575367727    -6.276665382976
         H            0.124838688056     2.307408353386    -6.747833275991
         C            0.215693125265     1.326149244575    -4.839491919143
         H            0.564985602991    -2.037552498822    -4.369443306697
         H            0.141991446925     2.264511326644    -4.292527882448
         C            0.191702755517     1.349968336042    -6.238493513545
         C            0.292626833615     0.154380285591    -6.959501083940
         C            0.277081737448     0.134194765582    -8.446365073188
         H            0.538769825564    -1.988922667277    -6.833354496666
         C            0.346970763763     7.155272660362     4.347591713160
         H            0.204427077709     6.829558998209     1.690967221517
         C            0.281929552364     5.879661069110     2.219564932250
         H            0.463675700762     4.591156920167     5.374256263519
         H            0.228622295032     4.724376907300     0.409763964429
         C            0.370319655533     5.859825518431     3.616510799129
         C            0.450714937953     3.438027301951     3.563490032825
         C            0.444182139981     4.634487500523     4.289590863956
         H            0.500592676634     2.493007457733     4.101825107830
         C            0.294239185343     4.684343132702     1.494857294574
         O           -0.383733804484    -7.441190069187     5.110927263315
         N            0.778544395433    -8.511744275525     3.441804038254
         H            1.671266132460   -10.327330600436     3.805248827441
         N           -0.547961797846     1.065442875374    -9.056334264786
         O            0.946299069935    -0.684891407135    -9.057804712210
         H           -1.142547987311     1.657356537836    -8.493143005072
         C           -0.653287465818     1.172137213602   -10.497557294666
         H           -1.704224365493     1.376269249875   -10.725495722150
         C            0.233756317026     2.293967051975   -11.030343310045
         H           -0.385881429398     0.216255545693   -10.960875220869
         H           -0.046278784111     3.239847240536   -10.549729421910
         H            1.279362778779     2.101901337372   -10.759050299974
         C            0.109606358202     2.427121360239   -12.548475223172
         H           -0.943286904459     2.572569305810   -12.819816158658
         C            0.937360828680     3.600384400868   -13.075713504551
         H            0.440913874844     1.496959150286   -13.025926750545
         H            0.595283256138     4.529815503256   -12.604315774427
         H            1.989487157354     3.464720250350   -12.797547516741
         C            0.820909890109     3.724098827370   -14.595991582692
         H           -0.234074351413     3.828183662143   -14.877220569449
         C            1.609028200559     4.926060009796   -15.119371022535
         H            1.192127284767     2.806090210181   -15.067800398920
         H            1.230194144632     5.843810692520   -14.653128101928
         H            2.663043629628     4.829055159540   -14.832177425963
         C            1.500994083333     5.042149255574   -16.639651749640
         H            0.448421610744     5.129428108218   -16.933378092040
         C            2.265423386370     6.247886012242   -17.162503060627
         H            1.895185633365     4.134262002202   -17.110968781634
         H            1.870402229286     7.176564846070   -16.738179912165
         H            3.328263940244     6.178968045473   -16.909543852658
         H            2.178546832430     6.308598417231   -18.251852000040
         O           -0.289110952756     8.109654490761     3.895367360661
         N            1.099328711565     7.222491760033     5.499975663634
         H            1.677002191138     6.437617638681     5.766395539740
         C            1.144257630207     8.410789931895     6.327965190445
         H            0.946839520424     9.296884446967     5.715051448840
         C            0.141655875148     8.316909624574     7.475056550045
         H            2.164781683827     8.488648084155     6.717805686686
         H           -0.872537429678     8.199318251253     7.073598289977
         H            0.350175540102     7.417722598211     8.068468141226
         C            0.203285633769     9.554351650202     8.370743746785
         H           -0.054212090298    10.444476587417     7.783920023334
         C           -0.748827755891     9.429035210267     9.561435975602
         H            1.228007064670     9.693226098046     8.736088200264
         H           -1.774063824807     9.282123799679     9.200630811406
         H           -0.482950735612     8.542658492172    10.150288744388
         C           -0.691801450466    10.671420012170    10.452065155961
         H           -0.985434732994    11.553462590554     9.869997659038
         C           -1.609786398672    10.528803360079    11.667398228158
         H            0.338888191752    10.835244797916    10.789585856808
         H           -2.640173856501    10.357775518457    11.332890088869
         H           -1.309937877014     9.650560493131    12.252161430501
         C           -1.558394445378    11.774452369174    12.551931911882
         H           -1.873435874441    12.652614638001    11.976310215362
         C           -2.454351440719    11.629464084738    13.771613364697
         H           -0.528820219532    11.955171597444    12.882140462509
         H           -3.497088888873    11.475215750522    13.476761981127
         H           -2.142189879574    10.780751468595    14.388709142549
         H           -2.405286945127    12.532995528546    14.387469163251
         C            0.737239770578    -9.811543716520     4.067731685201
         H            0.692982160690    -9.702604534276     5.156906284938
         C           -0.455914861122   -10.616539914220     3.559161609797
         H            1.308672816816    -8.398471777119     2.594182781586
         H           -4.992839930764   -16.822279535177     3.871526270516
         H           -4.046269492028   -18.277738599981     4.226421891274
         H           -1.950468263577   -16.962466915169     4.218258732257
         C           -4.015513210417   -17.297630610644     3.740217753088
         H           -3.083288949236   -16.338602373199     5.419195456619
         H           -3.850643713998   -17.454793100696     2.669550147415
         H           -0.394259474815   -10.708669260313     2.467403965986
         C           -0.503537450552   -12.005942855790     4.194953449765
         H           -1.387276180215   -10.078452497508     3.775831579681
         H            0.443352251187   -12.527874351671     4.010321184905
         H           -0.612325440671   -11.907884255992     5.281880423720
         C           -1.660132303883   -12.835352151462     3.633951934189
         H           -1.541132856594   -12.941406012232     2.548811231362
         C           -1.717302743406   -14.220333561809     4.280950677651
         H           -2.607907018568   -12.310690908452     3.805549854883
         H           -0.759348486636   -14.734348036933     4.135559452552
         H           -1.866293608799   -14.113744551459     5.362353785194
         C           -2.845369290210   -15.066036506706     3.687443165270
         H           -2.689577685158   -15.178790754689     2.607574340090
         C           -2.909373167636   -16.445803537722     4.342171607626
         H           -3.803598389251   -14.550079024361     3.823418541949
