139
 energy: -190.505501570252 gnorm: 0.535268989845 xtb: 6.3.3 (8d1dad5d26fa70d8c78cc3f4c837a3e1093e11cf)
N        -0.19088000000000   -0.16831000000000    1.20161000000000
N        -1.36085000000000    0.62117000000000    0.75891000000000
N        -0.38392000000000   -1.49324000000000    0.59367000000000
N        -2.49785000000000   -0.01059000000000    1.40957000000000
N        -1.51146000000000   -2.07274000000000    1.17968000000000
N        -2.61426000000000   -1.31934000000000    0.74787000000000
C        -3.80760000000000   -3.39466000000000    0.47909000000000
C        -3.86358000000000   -1.99061000000000    1.08399000000000
C        -5.05509000000000   -1.23657000000000    0.49228000000000
C        -6.35078000000000   -2.00680000000000    0.72765000000000
C        -6.29407000000000   -3.40328000000000    0.11212000000000
C        -5.10687000000000   -4.15748000000000    0.71194000000000
H        -0.23726000000000    2.40422000000000   -0.42170000000000
H       -15.89130000000000   -5.61940000000000   -3.34612000000000
H       -16.25522000000000   -5.18555000000000   -1.67663000000000
H       -18.28835000000000   -5.02409000000000   -3.09639000000000
N         0.79281000000000   -2.23509000000000    0.99662000000000
N         0.92947000000000    0.42707000000000    0.47508000000000
N         2.08749000000000   -0.36857000000000    0.86632000000000
N         1.87833000000000   -1.65813000000000    0.20940000000000
N        -1.21209000000000    1.91404000000000    1.26888000000000
N        -0.11973000000000    2.48221000000000    0.59859000000000
N         1.07469000000000    1.75450000000000    1.06483000000000
C         5.19662000000000   -4.29218000000000   -0.51152000000000
C         5.50120000000000   -2.85346000000000   -0.06024000000000
C         4.31452000000000   -1.90091000000000   -0.23085000000000
C         3.04014000000000   -2.54392000000000    0.31303000000000
C         2.70736000000000   -3.80674000000000   -0.50945000000000
C         3.89674000000000   -4.33085000000000   -1.31287000000000
H       -10.16302000000000   -2.20315000000000   -2.90756000000000
H       -10.99104000000000   -4.52473000000000   -2.55009000000000
H        -8.08807000000000   -2.38438000000000   -1.77368000000000
H        -8.61191000000000   -4.05508000000000   -2.08462000000000
C         0.00302000000000    3.90539000000000    0.89714000000000
C         1.17174000000000    4.48811000000000    0.08757000000000
C         0.92722000000000    5.95476000000000   -0.25099000000000
C        -0.25493000000000    6.10089000000000   -1.21688000000000
C        -1.30485000000000    5.01318000000000   -0.94545000000000
C        -1.30976000000000    4.60798000000000    0.52223000000000
H       -12.94618000000000   -2.35822000000000   -1.65782000000000
H       -13.43626000000000   -5.07663000000000   -2.95479000000000
H       -12.57270000000000   -2.76899000000000   -3.33072000000000
H       -15.01199000000000   -3.32625000000000   -3.75078000000000
C        -0.88693000000000    7.50369000000000   -1.09225000000000
O        -1.89931000000000    7.60919000000000   -2.05744000000000
N         0.02060000000000    8.62575000000000   -1.24090000000000
H         0.66037000000000    8.66132000000000   -0.45688000000000
C        -7.62248000000000   -4.13950000000000    0.36766000000000
N        -8.75378000000000   -3.37201000000000   -0.07600000000000
O        -7.65416000000000   -5.42510000000000   -0.24500000000000
H        -9.59343000000000   -3.86339000000000    0.21224000000000
C         5.12933000000000   -5.26208000000000    0.69122000000000
N         6.35935000000000   -5.43030000000000    1.44013000000000
O         4.72928000000000   -6.51913000000000    0.21074000000000
H         6.57849000000000   -4.59869000000000    1.97505000000000
C         7.51987000000000   -5.87016000000000    0.68019000000000
C         8.57508000000000   -6.41811000000000    1.63811000000000
C         9.80546000000000   -6.97828000000000    0.92476000000000
H         8.11914000000000   -7.18645000000000    2.26226000000000
C         9.53576000000000   -8.19032000000000    0.03045000000000
C         8.93941000000000   -9.37841000000000    0.78257000000000
C         8.88397000000000  -10.62774000000000   -0.09453000000000
C         8.15335000000000  -11.79817000000000    0.56462000000000
C         8.87089000000000  -12.33809000000000    1.79638000000000
C         0.75374000000000    8.68300000000000   -2.49731000000000
C         1.35610000000000   10.07229000000000   -2.70460000000000
C         2.53259000000000   10.35131000000000   -1.77112000000000
C         3.13614000000000   11.73106000000000   -2.02234000000000
C         4.41055000000000   11.99374000000000   -1.21806000000000
C         4.23692000000000   11.95069000000000    0.30126000000000
C         3.25249000000000   12.98944000000000    0.82536000000000
C        -8.83462000000000   -3.14125000000000   -1.51646000000000
C       -10.21898000000000   -2.62481000000000   -1.90170000000000
C       -11.29146000000000   -3.71281000000000   -1.88352000000000
C       -12.65238000000000   -3.17626000000000   -2.31997000000000
C       -13.73092000000000   -4.25677000000000   -2.29531000000000
C       -15.09069000000000   -3.71942000000000   -2.73434000000000
C       -16.17665000000000   -4.79172000000000   -2.69266000000000
C       -17.53026000000000   -4.24495000000000   -3.12932000000000
H       -17.84282000000000   -3.43398000000000   -2.47488000000000
H        -0.50944000000000   -1.46919000000000   -0.42837000000000
H         0.81816000000000    0.46507000000000   -0.54818000000000
H        -2.96192000000000   -3.79182000000000   -0.04244000000000
H        -5.17830000000000   -5.09353000000000    1.22537000000000
H        -4.98913000000000   -0.29778000000000   -0.01686000000000
H         1.69512000000000   -1.54579000000000   -0.79793000000000
H       -17.47628000000000   -3.86119000000000   -4.14589000000000
H        -2.62218000000000   -1.20775000000000   -0.27603000000000
H        -1.46732000000000    0.66090000000000   -0.26481000000000
H       -11.38406000000000   -4.13027000000000   -0.87839000000000
H       -10.49565000000000   -1.82249000000000   -1.21500000000000
H         1.50241000000000    6.77111000000000    0.13324000000000
H         4.36995000000000   -0.92581000000000   -0.66789000000000
H         6.44819000000000   -2.54863000000000    0.33372000000000
H         1.74203000000000   -4.26826000000000   -0.51637000000000
H        -7.19438000000000   -1.61703000000000    1.25805000000000
H        -1.94880000000000    4.59478000000000   -1.69056000000000
H        -2.11788000000000    4.78825000000000    1.19998000000000
H       -13.81310000000000   -4.66201000000000   -1.28376000000000
H         2.04259000000000    3.93729000000000   -0.20071000000000
H       -15.37838000000000   -2.89106000000000   -2.08232000000000
H        -1.32430000000000    7.60485000000000   -0.08064000000000
H        -2.18063000000000    8.53095000000000   -2.07905000000000
H        -7.74059000000000   -4.26417000000000    1.45996000000000
H        -6.87654000000000   -5.92275000000000    0.02272000000000
H         4.38851000000000   -4.88551000000000    1.41818000000000
H         4.87254000000000   -7.15345000000000    0.92247000000000
H         7.96369000000000   -5.06496000000000    0.07296000000000
H         7.17578000000000   -6.65696000000000    0.00660000000000
H         8.89458000000000   -5.60972000000000    2.30110000000000
H        10.54083000000000   -7.26057000000000    1.68229000000000
H        10.24952000000000   -6.18744000000000    0.31454000000000
H        10.48522000000000   -8.49807000000000   -0.41570000000000
H         8.87153000000000   -7.90815000000000   -0.78821000000000
H         7.92761000000000   -9.13585000000000    1.11150000000000
H         9.54560000000000   -9.57602000000000    1.66824000000000
H         9.90033000000000  -10.93657000000000   -0.35066000000000
H         8.37099000000000  -10.37825000000000   -1.02696000000000
H         8.05616000000000  -12.60349000000000   -0.16753000000000
H         7.14491000000000  -11.48253000000000    0.84213000000000
H         8.35730000000000  -13.21835000000000    2.17654000000000
H         8.89908000000000  -11.59539000000000    2.58924000000000
H         9.89266000000000  -12.61814000000000    1.54930000000000
H         0.03508000000000    8.47351000000000   -3.29349000000000
H         1.55638000000000    7.93075000000000   -2.55806000000000
H         0.57801000000000   10.81972000000000   -2.54186000000000
H         1.69351000000000   10.15317000000000   -3.74023000000000
H         3.30173000000000    9.58880000000000   -1.92132000000000
H         2.19046000000000   10.28777000000000   -0.73776000000000
H         2.39239000000000   12.49696000000000   -1.79770000000000
H         3.38106000000000   11.81924000000000   -3.08414000000000
H         4.79740000000000   12.97727000000000   -1.49659000000000
H         5.16304000000000   11.25300000000000   -1.50125000000000
H         5.21396000000000   12.12827000000000    0.75788000000000
H         3.91328000000000   10.95459000000000    0.60796000000000
H         3.53121000000000   13.98390000000000    0.48343000000000
H         3.24858000000000   12.98993000000000    1.91324000000000
H         2.24239000000000   12.77803000000000    0.48463000000000
H         3.82712000000000   -4.68415000000000   -2.32045000000000
